Version 4
SHEET 1 3284 11124
WIRE 800 -304 560 -304
WIRE 336 -256 32 -256
WIRE 1152 -256 1056 -256
WIRE 1280 -256 1232 -256
WIRE 1280 -192 1280 -256
WIRE 32 -176 32 -256
WIRE 336 -176 336 -256
WIRE 512 -160 384 -160
WIRE 656 -160 608 -160
WIRE 800 -160 736 -160
WIRE -352 -96 -400 -96
WIRE -256 -96 -272 -96
WIRE -16 -96 -160 -96
WIRE -1344 -80 -1472 -80
WIRE -1264 -80 -1344 -80
WIRE -1104 -80 -1184 -80
WIRE -976 -80 -1104 -80
WIRE 1152 -32 1056 -32
WIRE 1280 -32 1232 -32
WIRE 816 32 560 32
WIRE -208 48 -400 48
WIRE 1280 48 1280 -32
WIRE -1344 64 -1344 -80
WIRE -1232 64 -1344 64
WIRE -1104 64 -1104 -80
WIRE -1104 64 -1232 64
WIRE 32 64 32 -80
WIRE 192 64 32 64
WIRE 336 64 336 -80
WIRE 336 64 192 64
WIRE 32 160 32 64
WIRE 336 160 336 64
WIRE 512 176 384 176
WIRE 672 176 608 176
WIRE 816 176 752 176
WIRE -1232 192 -1232 64
WIRE -352 240 -400 240
WIRE -240 240 -272 240
WIRE -32 240 -144 240
WIRE 1392 256 1296 256
WIRE 1456 320 1232 320
WIRE 32 352 32 256
WIRE 192 352 32 352
WIRE 336 352 336 256
WIRE 336 352 192 352
WIRE 1296 352 1296 256
WIRE 1392 352 1392 256
WIRE 1392 352 1296 352
WIRE 1200 368 1056 368
WIRE 1232 368 1232 320
WIRE 1232 368 1200 368
WIRE 1456 368 1456 320
WIRE 1488 368 1456 368
WIRE 1632 368 1488 368
WIRE -192 384 -400 384
WIRE 192 384 192 352
WIRE 1200 416 1056 416
WIRE 1232 416 1232 368
WIRE 1232 416 1200 416
WIRE 1456 416 1456 368
WIRE 1488 416 1456 416
WIRE 1632 416 1488 416
WIRE 1200 464 1056 464
WIRE 1232 464 1232 416
WIRE 1232 464 1200 464
WIRE 1456 464 1456 416
WIRE 1488 464 1456 464
WIRE 1632 464 1488 464
WIRE 1200 512 1056 512
WIRE 1232 512 1232 464
WIRE 1232 512 1200 512
WIRE 1456 512 1456 464
WIRE 1488 512 1456 512
WIRE 1632 512 1488 512
WIRE 1200 560 1056 560
WIRE 1232 560 1232 512
WIRE 1232 560 1200 560
WIRE 1456 560 1456 512
WIRE 1488 560 1456 560
WIRE 1632 560 1488 560
WIRE 1200 608 1056 608
WIRE 1232 608 1232 560
WIRE 1232 608 1200 608
WIRE 1456 608 1456 560
WIRE 1488 608 1456 608
WIRE 1632 608 1488 608
WIRE 1200 656 1056 656
WIRE 1232 656 1232 608
WIRE 1232 656 1200 656
WIRE 1456 656 1456 608
WIRE 1488 656 1456 656
WIRE 1632 656 1488 656
WIRE 1200 704 1056 704
WIRE 1232 704 1232 656
WIRE 1232 704 1200 704
WIRE 1456 704 1456 656
WIRE 1488 704 1456 704
WIRE 1632 704 1488 704
WIRE -1312 736 -1344 736
WIRE -1216 736 -1232 736
WIRE -1104 736 -1152 736
WIRE 1200 752 1056 752
WIRE 1232 752 1232 704
WIRE 1232 752 1200 752
WIRE 1456 752 1456 704
WIRE 1488 752 1456 752
WIRE 1632 752 1488 752
WIRE -1344 800 -1344 736
WIRE -1344 800 -1472 800
WIRE -1104 800 -1104 736
WIRE -976 800 -1104 800
WIRE 1200 800 1056 800
WIRE 1232 800 1232 752
WIRE 1232 800 1200 800
WIRE 1456 800 1456 752
WIRE 1488 800 1456 800
WIRE 1632 800 1488 800
WIRE -976 848 -976 800
WIRE 1200 848 1056 848
WIRE 1232 848 1232 800
WIRE 1232 848 1200 848
WIRE 1456 848 1456 800
WIRE 1488 848 1456 848
WIRE 1632 848 1488 848
WIRE -1344 864 -1344 800
WIRE -1280 864 -1344 864
WIRE -1104 864 -1104 800
WIRE -1104 864 -1200 864
WIRE 1200 896 1056 896
WIRE 1232 896 1232 848
WIRE 1232 896 1200 896
WIRE 1456 896 1456 848
WIRE 1488 896 1456 896
WIRE 1632 896 1488 896
WIRE 1200 944 1056 944
WIRE 1232 944 1232 896
WIRE 1232 944 1200 944
WIRE 1456 944 1456 896
WIRE 1488 944 1456 944
WIRE 1632 944 1488 944
WIRE 1200 992 1056 992
WIRE 1232 992 1232 944
WIRE 1232 992 1200 992
WIRE 1456 992 1456 944
WIRE 1488 992 1456 992
WIRE 1632 992 1488 992
WIRE 1200 1040 1056 1040
WIRE 1232 1040 1232 992
WIRE 1232 1040 1200 1040
WIRE 1456 1040 1456 992
WIRE 1488 1040 1456 1040
WIRE 1632 1040 1488 1040
WIRE 1232 1088 1232 1040
WIRE 1456 1088 1456 1040
WIRE 1456 1088 1232 1088
WIRE -1248 1168 -1344 1168
WIRE -1200 1168 -1248 1168
WIRE -1104 1168 -1200 1168
WIRE -1376 1200 -1520 1200
WIRE -1344 1200 -1344 1168
WIRE -1344 1200 -1376 1200
WIRE -1104 1200 -1104 1168
WIRE -1072 1200 -1104 1200
WIRE -944 1200 -1072 1200
WIRE -1248 1216 -1248 1168
WIRE -1200 1216 -1200 1168
WIRE -1200 1216 -1248 1216
WIRE -1376 1232 -1520 1232
WIRE -1344 1232 -1344 1200
WIRE -1344 1232 -1376 1232
WIRE -1104 1232 -1104 1200
WIRE -1072 1232 -1104 1232
WIRE -944 1232 -1072 1232
WIRE -1376 1264 -1520 1264
WIRE -1344 1264 -1344 1232
WIRE -1344 1264 -1376 1264
WIRE -1104 1264 -1104 1232
WIRE -1072 1264 -1104 1264
WIRE -944 1264 -1072 1264
WIRE -1376 1296 -1520 1296
WIRE -1344 1296 -1344 1264
WIRE -1344 1296 -1376 1296
WIRE -1104 1296 -1104 1264
WIRE -1072 1296 -1104 1296
WIRE -944 1296 -1072 1296
WIRE -1376 1328 -1520 1328
WIRE -1344 1328 -1344 1296
WIRE -1344 1328 -1376 1328
WIRE -1104 1328 -1104 1296
WIRE -1072 1328 -1104 1328
WIRE -944 1328 -1072 1328
WIRE -1376 1360 -1520 1360
WIRE -1344 1360 -1344 1328
WIRE -1344 1360 -1376 1360
WIRE -1104 1360 -1104 1328
WIRE -1072 1360 -1104 1360
WIRE -944 1360 -1072 1360
WIRE -1376 1392 -1520 1392
WIRE -1344 1392 -1344 1360
WIRE -1344 1392 -1376 1392
WIRE -1104 1392 -1104 1360
WIRE -1072 1392 -1104 1392
WIRE -944 1392 -1072 1392
WIRE -1376 1424 -1520 1424
WIRE -1344 1424 -1344 1392
WIRE -1344 1424 -1376 1424
WIRE -1104 1424 -1104 1392
WIRE -1072 1424 -1104 1424
WIRE -944 1424 -1072 1424
WIRE -1344 1456 -1344 1424
WIRE -1104 1456 -1104 1424
WIRE -1104 1456 -1344 1456
WIRE 1936 3248 1168 3248
WIRE 3040 3248 1936 3248
WIRE 1856 3408 -1664 3408
WIRE 2256 3648 2224 3648
WIRE 2352 3648 2336 3648
WIRE 2464 3648 2416 3648
WIRE 2096 3664 1200 3664
WIRE 2064 3680 1216 3680
WIRE 2048 3696 1232 3696
WIRE 2032 3712 1248 3712
WIRE 2096 3712 2096 3664
WIRE 2224 3712 2224 3648
WIRE 2224 3712 2096 3712
WIRE 2464 3712 2464 3648
WIRE 3040 3712 3040 3248
WIRE 3040 3712 2464 3712
WIRE -1664 3760 -1664 3408
WIRE 352 3760 -1664 3760
WIRE 480 3760 352 3760
WIRE 560 3760 480 3760
WIRE 720 3760 640 3760
WIRE 848 3760 720 3760
WIRE -1664 3776 -1664 3760
WIRE 80 3776 -1664 3776
WIRE 2224 3776 2224 3712
WIRE 2288 3776 2224 3776
WIRE 2464 3776 2464 3712
WIRE 2464 3776 2368 3776
WIRE 176 3840 -1744 3840
WIRE -240 3872 -480 3872
WIRE -80 3872 -240 3872
WIRE 2256 3872 2224 3872
WIRE 2352 3872 2336 3872
WIRE 2464 3872 2416 3872
WIRE 480 3904 480 3760
WIRE 592 3904 480 3904
WIRE 720 3904 720 3760
WIRE 720 3904 592 3904
WIRE 1904 3904 1152 3904
WIRE -704 3920 -1008 3920
WIRE 1552 3936 1456 3936
WIRE 1600 3936 1552 3936
WIRE 1696 3936 1600 3936
WIRE 2064 3936 2064 3680
WIRE 2096 3936 2064 3936
WIRE 2224 3936 2224 3872
WIRE 2224 3936 2096 3936
WIRE 2464 3936 2464 3872
WIRE 3040 3936 3040 3712
WIRE 3040 3936 2464 3936
WIRE -1744 3952 -1744 3840
WIRE -1664 3952 -1664 3776
WIRE 1424 3968 1280 3968
WIRE 1456 3968 1456 3936
WIRE 1456 3968 1424 3968
WIRE 1696 3968 1696 3936
WIRE 1728 3968 1696 3968
WIRE 1856 3968 1856 3408
WIRE 1856 3968 1728 3968
WIRE 1552 3984 1552 3936
WIRE 1600 3984 1600 3936
WIRE 1600 3984 1552 3984
WIRE -1008 4000 -1008 3920
WIRE -704 4000 -704 3920
WIRE 1424 4000 976 4000
WIRE 1456 4000 1456 3968
WIRE 1456 4000 1424 4000
WIRE 1696 4000 1696 3968
WIRE 1728 4000 1696 4000
WIRE 1904 4000 1904 3904
WIRE 1904 4000 1728 4000
WIRE 2224 4000 2224 3936
WIRE 2288 4000 2224 4000
WIRE 2464 4000 2464 3936
WIRE 2464 4000 2368 4000
WIRE -528 4016 -656 4016
WIRE -384 4016 -432 4016
WIRE -240 4016 -304 4016
WIRE 80 4016 80 3776
WIRE 80 4016 -224 4016
WIRE 176 4032 176 3840
WIRE 592 4032 592 3904
WIRE 592 4032 176 4032
WIRE 1248 4032 1248 3712
WIRE 1424 4032 1248 4032
WIRE 1456 4032 1456 4000
WIRE 1456 4032 1424 4032
WIRE 1696 4032 1696 4000
WIRE 1728 4032 1696 4032
WIRE 2016 4032 1728 4032
WIRE 1232 4064 1232 3696
WIRE 1424 4064 1232 4064
WIRE 1456 4064 1456 4032
WIRE 1456 4064 1424 4064
WIRE 1696 4064 1696 4032
WIRE 1728 4064 1696 4064
WIRE 2000 4064 1728 4064
WIRE -1664 4080 -1664 3952
WIRE -1456 4080 -1664 4080
WIRE -1392 4080 -1440 4080
WIRE -1296 4080 -1312 4080
WIRE -1056 4080 -1200 4080
WIRE 1216 4096 1216 3680
WIRE 1424 4096 1216 4096
WIRE 1456 4096 1456 4064
WIRE 1456 4096 1424 4096
WIRE 1696 4096 1696 4064
WIRE 1728 4096 1696 4096
WIRE 1984 4096 1728 4096
WIRE 2240 4096 2208 4096
WIRE 2336 4096 2320 4096
WIRE 2448 4096 2400 4096
WIRE 1200 4128 1200 3664
WIRE 1424 4128 1200 4128
WIRE 1456 4128 1456 4096
WIRE 1456 4128 1424 4128
WIRE 1696 4128 1696 4096
WIRE 1728 4128 1696 4128
WIRE 1968 4128 1728 4128
WIRE 848 4144 848 3760
WIRE 848 4144 192 4144
WIRE 1424 4160 1280 4160
WIRE 1456 4160 1456 4128
WIRE 1456 4160 1424 4160
WIRE 1696 4160 1696 4128
WIRE 1728 4160 1696 4160
WIRE 1888 4160 1728 4160
WIRE 2048 4160 2048 3696
WIRE 2080 4160 2048 4160
WIRE 2208 4160 2208 4096
WIRE 2208 4160 2080 4160
WIRE 2448 4160 2448 4096
WIRE 3040 4160 3040 3936
WIRE 3040 4160 2448 4160
WIRE 1168 4192 1168 3248
WIRE 1424 4192 1168 4192
WIRE 1456 4192 1456 4160
WIRE 1456 4192 1424 4192
WIRE 1696 4192 1696 4160
WIRE 1728 4192 1696 4192
WIRE 1936 4192 1936 3248
WIRE 1936 4192 1728 4192
WIRE -224 4208 -480 4208
WIRE -144 4208 -224 4208
WIRE -1440 4224 -1584 4224
WIRE -1248 4224 -1440 4224
WIRE 1456 4224 1456 4192
WIRE 1696 4224 1696 4192
WIRE 1696 4224 1456 4224
WIRE 2208 4224 2208 4160
WIRE 2272 4224 2208 4224
WIRE 2448 4224 2448 4160
WIRE 2448 4224 2352 4224
WIRE -1008 4240 -1008 4096
WIRE -848 4240 -1008 4240
WIRE -704 4240 -704 4096
WIRE -704 4240 -848 4240
WIRE 2240 4320 2208 4320
WIRE 2336 4320 2320 4320
WIRE 2448 4320 2400 4320
WIRE -1008 4336 -1008 4240
WIRE -704 4336 -704 4240
WIRE -528 4352 -656 4352
WIRE -368 4352 -432 4352
WIRE -224 4352 -288 4352
WIRE 80 4352 80 4016
WIRE 80 4352 -208 4352
WIRE 2032 4384 2032 3712
WIRE 2080 4384 2032 4384
WIRE 2208 4384 2208 4320
WIRE 2208 4384 2080 4384
WIRE 2448 4384 2448 4320
WIRE 3040 4384 3040 4160
WIRE 3040 4384 2448 4384
WIRE -1664 4416 -1664 4080
WIRE -1440 4416 -1664 4416
WIRE -1392 4416 -1440 4416
WIRE -1280 4416 -1312 4416
WIRE -1072 4416 -1184 4416
WIRE -144 4448 -144 4208
WIRE -144 4448 -512 4448
WIRE 1888 4448 1888 4160
WIRE 1888 4448 464 4448
WIRE 2208 4448 2208 4384
WIRE 2272 4448 2208 4448
WIRE 2448 4448 2448 4384
WIRE 2448 4448 2352 4448
WIRE 976 4480 976 4000
WIRE 976 4480 512 4480
WIRE 1152 4512 1152 3904
WIRE 1152 4512 544 4512
WIRE -1008 4528 -1008 4432
WIRE -848 4528 -1008 4528
WIRE -704 4528 -704 4432
WIRE -704 4528 -848 4528
WIRE -80 4528 -80 3872
WIRE -80 4528 -416 4528
WIRE 2240 4544 2208 4544
WIRE 2336 4544 2320 4544
WIRE 2448 4544 2400 4544
WIRE -1440 4560 -1504 4560
WIRE -1232 4560 -1440 4560
WIRE 192 4608 192 4144
WIRE 192 4608 -336 4608
WIRE 2016 4608 2016 4032
WIRE 2080 4608 2016 4608
WIRE 2208 4608 2208 4544
WIRE 2208 4608 2080 4608
WIRE 2448 4608 2448 4544
WIRE 3040 4608 3040 4384
WIRE 3040 4608 2448 4608
WIRE 160 4640 64 4640
WIRE 2208 4672 2208 4608
WIRE 2272 4672 2208 4672
WIRE 2448 4672 2448 4608
WIRE 2448 4672 2352 4672
WIRE 224 4704 0 4704
WIRE 64 4736 64 4640
WIRE 160 4736 160 4640
WIRE 160 4736 64 4736
WIRE -336 4752 -336 4608
WIRE -176 4752 -336 4752
WIRE -32 4752 -176 4752
WIRE 0 4752 0 4704
WIRE 0 4752 -32 4752
WIRE 224 4752 224 4704
WIRE 256 4752 224 4752
WIRE 400 4752 256 4752
WIRE 464 4752 464 4448
WIRE 464 4752 400 4752
WIRE 2240 4768 2208 4768
WIRE 2336 4768 2320 4768
WIRE 2448 4768 2400 4768
WIRE -32 4800 -176 4800
WIRE 0 4800 0 4752
WIRE 0 4800 -32 4800
WIRE 224 4800 224 4752
WIRE 256 4800 224 4800
WIRE 400 4800 256 4800
WIRE 512 4800 512 4480
WIRE 512 4800 400 4800
WIRE 2000 4832 2000 4064
WIRE 2080 4832 2000 4832
WIRE 2208 4832 2208 4768
WIRE 2208 4832 2080 4832
WIRE 2448 4832 2448 4768
WIRE 3040 4832 3040 4608
WIRE 3040 4832 2448 4832
WIRE -32 4848 -176 4848
WIRE 0 4848 0 4800
WIRE 0 4848 -32 4848
WIRE 224 4848 224 4800
WIRE 256 4848 224 4848
WIRE 400 4848 256 4848
WIRE 544 4848 544 4512
WIRE 544 4848 400 4848
WIRE -416 4896 -416 4528
WIRE -176 4896 -416 4896
WIRE -32 4896 -176 4896
WIRE 0 4896 0 4848
WIRE 0 4896 -32 4896
WIRE 224 4896 224 4848
WIRE 256 4896 224 4896
WIRE 400 4896 256 4896
WIRE 976 4896 400 4896
WIRE 2208 4896 2208 4832
WIRE 2272 4896 2208 4896
WIRE 2448 4896 2448 4832
WIRE 2448 4896 2352 4896
WIRE -512 4944 -512 4448
WIRE -176 4944 -512 4944
WIRE -32 4944 -176 4944
WIRE 0 4944 0 4896
WIRE 0 4944 -32 4944
WIRE 224 4944 224 4896
WIRE 256 4944 224 4944
WIRE 400 4944 256 4944
WIRE 944 4944 400 4944
WIRE -1504 4992 -1504 4560
WIRE -176 4992 -1504 4992
WIRE -32 4992 -176 4992
WIRE 0 4992 0 4944
WIRE 0 4992 -32 4992
WIRE 224 4992 224 4944
WIRE 256 4992 224 4992
WIRE 400 4992 256 4992
WIRE 912 4992 400 4992
WIRE 2224 4992 2192 4992
WIRE 2320 4992 2304 4992
WIRE 2432 4992 2384 4992
WIRE -1584 5040 -1584 4224
WIRE -176 5040 -1584 5040
WIRE -32 5040 -176 5040
WIRE 0 5040 0 4992
WIRE 0 5040 -32 5040
WIRE 224 5040 224 4992
WIRE 256 5040 224 5040
WIRE 400 5040 256 5040
WIRE 640 5040 400 5040
WIRE 1984 5056 1984 4096
WIRE 2064 5056 1984 5056
WIRE 2192 5056 2192 4992
WIRE 2192 5056 2064 5056
WIRE 2432 5056 2432 4992
WIRE 3040 5056 3040 4832
WIRE 3040 5056 2432 5056
WIRE -32 5088 -176 5088
WIRE 0 5088 0 5040
WIRE 0 5088 -32 5088
WIRE 224 5088 224 5040
WIRE 256 5088 224 5088
WIRE 400 5088 256 5088
WIRE 624 5088 400 5088
WIRE 2192 5120 2192 5056
WIRE 2256 5120 2192 5120
WIRE 2432 5120 2432 5056
WIRE 2432 5120 2336 5120
WIRE -32 5136 -176 5136
WIRE 0 5136 0 5088
WIRE 0 5136 -32 5136
WIRE 224 5136 224 5088
WIRE 256 5136 224 5136
WIRE 400 5136 256 5136
WIRE 608 5136 400 5136
WIRE -32 5184 -176 5184
WIRE 0 5184 0 5136
WIRE 0 5184 -32 5184
WIRE 224 5184 224 5136
WIRE 256 5184 224 5184
WIRE 400 5184 256 5184
WIRE 464 5184 400 5184
WIRE 2224 5216 2192 5216
WIRE 2320 5216 2304 5216
WIRE 2432 5216 2384 5216
WIRE -32 5232 -176 5232
WIRE 0 5232 0 5184
WIRE 0 5232 -32 5232
WIRE 224 5232 224 5184
WIRE 256 5232 224 5232
WIRE 400 5232 256 5232
WIRE 448 5232 400 5232
WIRE -1664 5280 -1664 4416
WIRE -304 5280 -1664 5280
WIRE -176 5280 -304 5280
WIRE -32 5280 -176 5280
WIRE 0 5280 0 5232
WIRE 0 5280 -32 5280
WIRE 224 5280 224 5232
WIRE 256 5280 224 5280
WIRE 576 5280 256 5280
WIRE 1968 5280 1968 4128
WIRE 2064 5280 1968 5280
WIRE 2192 5280 2192 5216
WIRE 2192 5280 2064 5280
WIRE 2432 5280 2432 5216
WIRE 3040 5280 3040 5056
WIRE 3040 5280 2432 5280
WIRE -32 5328 -176 5328
WIRE 0 5328 0 5280
WIRE 0 5328 -32 5328
WIRE 224 5328 224 5280
WIRE 256 5328 224 5328
WIRE 400 5328 256 5328
WIRE 2192 5344 2192 5280
WIRE 2256 5344 2192 5344
WIRE 2432 5344 2432 5280
WIRE 2432 5344 2336 5344
WIRE -1744 5376 -1744 3952
WIRE -848 5376 -848 4528
WIRE -848 5376 -1744 5376
WIRE -32 5376 -848 5376
WIRE 0 5376 0 5328
WIRE 0 5376 -32 5376
WIRE 224 5376 224 5328
WIRE 256 5376 224 5376
WIRE 400 5376 256 5376
WIRE 432 5376 400 5376
WIRE -32 5424 -176 5424
WIRE 0 5424 0 5376
WIRE 0 5424 -32 5424
WIRE 224 5424 224 5376
WIRE 256 5424 224 5424
WIRE 400 5424 256 5424
WIRE 2240 5456 2208 5456
WIRE 2336 5456 2320 5456
WIRE 2448 5456 2400 5456
WIRE 0 5472 0 5424
WIRE 224 5472 224 5424
WIRE 224 5472 0 5472
WIRE 2080 5520 1888 5520
WIRE 2208 5520 2208 5456
WIRE 2208 5520 2080 5520
WIRE 2448 5520 2448 5456
WIRE 3040 5520 3040 5280
WIRE 3040 5520 2448 5520
WIRE 2208 5584 2208 5520
WIRE 2272 5584 2208 5584
WIRE 2448 5584 2448 5520
WIRE 2448 5584 2352 5584
WIRE 2240 5680 2208 5680
WIRE 2336 5680 2320 5680
WIRE 2448 5680 2400 5680
WIRE 1888 5696 1888 5520
WIRE 1888 5696 960 5696
WIRE 1888 5712 992 5712
WIRE 1872 5728 1008 5728
WIRE 1856 5744 1024 5744
WIRE 1888 5744 1888 5712
WIRE 2080 5744 1888 5744
WIRE 2208 5744 2208 5680
WIRE 2208 5744 2080 5744
WIRE 2448 5744 2448 5680
WIRE 3040 5744 3040 5520
WIRE 3040 5744 2448 5744
WIRE -304 5760 -304 5280
WIRE 352 5760 -304 5760
WIRE 2208 5808 2208 5744
WIRE 2272 5808 2208 5808
WIRE 2448 5808 2448 5744
WIRE 2448 5808 2352 5808
WIRE 2224 5904 2192 5904
WIRE 2320 5904 2304 5904
WIRE 2432 5904 2384 5904
WIRE 1872 5968 1872 5728
WIRE 2064 5968 1872 5968
WIRE 2192 5968 2192 5904
WIRE 2192 5968 2064 5968
WIRE 2432 5968 2432 5904
WIRE 3040 5968 3040 5744
WIRE 3040 5968 2432 5968
WIRE 2192 6032 2192 5968
WIRE 2256 6032 2192 6032
WIRE 2432 6032 2432 5968
WIRE 2432 6032 2336 6032
WIRE 2224 6128 2192 6128
WIRE 2320 6128 2304 6128
WIRE 2432 6128 2384 6128
WIRE 912 6144 912 4992
WIRE 1664 6144 912 6144
WIRE 352 6160 352 5760
WIRE 1632 6160 352 6160
WIRE 1328 6192 1232 6192
WIRE 1376 6192 1328 6192
WIRE 1472 6192 1376 6192
WIRE 1856 6192 1856 5744
WIRE 2064 6192 1856 6192
WIRE 2192 6192 2192 6128
WIRE 2192 6192 2064 6192
WIRE 2432 6192 2432 6128
WIRE 3040 6192 3040 5968
WIRE 3040 6192 2432 6192
WIRE 1200 6224 1056 6224
WIRE 1232 6224 1232 6192
WIRE 1232 6224 1200 6224
WIRE 1472 6224 1472 6192
WIRE 1504 6224 1472 6224
WIRE 1632 6224 1632 6160
WIRE 1632 6224 1504 6224
WIRE 1328 6240 1328 6192
WIRE 1376 6240 1376 6192
WIRE 1376 6240 1328 6240
WIRE 944 6256 944 4944
WIRE 1056 6256 944 6256
WIRE 1200 6256 1056 6256
WIRE 1232 6256 1232 6224
WIRE 1232 6256 1200 6256
WIRE 1472 6256 1472 6224
WIRE 1504 6256 1472 6256
WIRE 1632 6256 1504 6256
WIRE 1664 6256 1664 6144
WIRE 1664 6256 1632 6256
WIRE 2192 6256 2192 6192
WIRE 2256 6256 2192 6256
WIRE 2432 6256 2432 6192
WIRE 2432 6256 2336 6256
WIRE 1024 6288 1024 5744
WIRE 1056 6288 1024 6288
WIRE 1200 6288 1056 6288
WIRE 1232 6288 1232 6256
WIRE 1232 6288 1200 6288
WIRE 1472 6288 1472 6256
WIRE 1504 6288 1472 6288
WIRE 1632 6288 1504 6288
WIRE 2064 6288 1632 6288
WIRE 1008 6320 1008 5728
WIRE 1056 6320 1008 6320
WIRE 1200 6320 1056 6320
WIRE 1232 6320 1232 6288
WIRE 1232 6320 1200 6320
WIRE 1472 6320 1472 6288
WIRE 1504 6320 1472 6320
WIRE 1632 6320 1504 6320
WIRE 2016 6320 1632 6320
WIRE 992 6352 992 5712
WIRE 1056 6352 992 6352
WIRE 1200 6352 1056 6352
WIRE 1232 6352 1232 6320
WIRE 1232 6352 1200 6352
WIRE 1472 6352 1472 6320
WIRE 1504 6352 1472 6352
WIRE 1632 6352 1504 6352
WIRE 1968 6352 1632 6352
WIRE 2224 6352 2192 6352
WIRE 2320 6352 2304 6352
WIRE 2432 6352 2384 6352
WIRE 960 6384 960 5696
WIRE 1056 6384 960 6384
WIRE 1200 6384 1056 6384
WIRE 1232 6384 1232 6352
WIRE 1232 6384 1200 6384
WIRE 1472 6384 1472 6352
WIRE 1504 6384 1472 6384
WIRE 1632 6384 1504 6384
WIRE 1936 6384 1632 6384
WIRE 1200 6416 1056 6416
WIRE 1232 6416 1232 6384
WIRE 1232 6416 1200 6416
WIRE 1472 6416 1472 6384
WIRE 1504 6416 1472 6416
WIRE 1632 6416 1504 6416
WIRE 1680 6416 1632 6416
WIRE 2064 6416 2064 6288
WIRE 2192 6416 2192 6352
WIRE 2192 6416 2064 6416
WIRE 2432 6416 2432 6352
WIRE 3040 6416 3040 6192
WIRE 3040 6416 2432 6416
WIRE 576 6448 576 5280
WIRE 1200 6448 576 6448
WIRE 1232 6448 1232 6416
WIRE 1232 6448 1200 6448
WIRE 1472 6448 1472 6416
WIRE 1504 6448 1472 6448
WIRE 1632 6448 1504 6448
WIRE 1232 6480 1232 6448
WIRE 1472 6480 1472 6448
WIRE 1472 6480 1232 6480
WIRE 2192 6480 2192 6416
WIRE 2256 6480 2192 6480
WIRE 2432 6480 2432 6416
WIRE 2432 6480 2336 6480
WIRE 576 6512 576 6448
WIRE 1632 6512 1632 6448
WIRE 1632 6512 576 6512
WIRE 976 6544 976 4896
WIRE 1680 6544 1680 6416
WIRE 1680 6544 976 6544
WIRE 2224 6576 2192 6576
WIRE 2320 6576 2304 6576
WIRE 2432 6576 2384 6576
WIRE 2016 6640 2016 6320
WIRE 2064 6640 2016 6640
WIRE 2192 6640 2192 6576
WIRE 2192 6640 2064 6640
WIRE 2432 6640 2432 6576
WIRE 3040 6640 3040 6416
WIRE 3040 6640 2432 6640
WIRE 2192 6704 2192 6640
WIRE 2256 6704 2192 6704
WIRE 2432 6704 2432 6640
WIRE 2432 6704 2336 6704
WIRE 2208 6800 2176 6800
WIRE 2304 6800 2288 6800
WIRE 2416 6800 2368 6800
WIRE 1968 6864 1968 6352
WIRE 2048 6864 1968 6864
WIRE 2176 6864 2176 6800
WIRE 2176 6864 2048 6864
WIRE 2416 6864 2416 6800
WIRE 3040 6864 3040 6640
WIRE 3040 6864 2416 6864
WIRE 2176 6928 2176 6864
WIRE 2240 6928 2176 6928
WIRE 2416 6928 2416 6864
WIRE 2416 6928 2320 6928
WIRE 2208 7024 2176 7024
WIRE 2304 7024 2288 7024
WIRE 2416 7024 2368 7024
WIRE 1936 7088 1936 6384
WIRE 2048 7088 1936 7088
WIRE 2176 7088 2176 7024
WIRE 2176 7088 2048 7088
WIRE 2416 7088 2416 7024
WIRE 3040 7088 3040 6864
WIRE 3040 7088 2416 7088
WIRE 2176 7152 2176 7088
WIRE 2240 7152 2176 7152
WIRE 2416 7152 2416 7088
WIRE 2416 7152 2320 7152
WIRE 2240 7280 2208 7280
WIRE 2336 7280 2320 7280
WIRE 2448 7280 2400 7280
WIRE 2080 7344 1648 7344
WIRE 2208 7344 2208 7280
WIRE 2208 7344 2080 7344
WIRE 2448 7344 2448 7280
WIRE 3040 7344 3040 7088
WIRE 3040 7344 2448 7344
WIRE 2208 7408 2208 7344
WIRE 2272 7408 2208 7408
WIRE 2448 7408 2448 7344
WIRE 2448 7408 2352 7408
WIRE 2240 7504 2208 7504
WIRE 2336 7504 2320 7504
WIRE 2448 7504 2400 7504
WIRE 2080 7568 1680 7568
WIRE 2208 7568 2208 7504
WIRE 2208 7568 2080 7568
WIRE 2448 7568 2448 7504
WIRE 3040 7568 3040 7344
WIRE 3040 7568 2448 7568
WIRE 2208 7632 2208 7568
WIRE 2272 7632 2208 7632
WIRE 2448 7632 2448 7568
WIRE 2448 7632 2352 7632
WIRE 2224 7728 2192 7728
WIRE 2320 7728 2304 7728
WIRE 2432 7728 2384 7728
WIRE 1648 7776 1648 7344
WIRE 1648 7776 864 7776
WIRE 2064 7792 1712 7792
WIRE 2192 7792 2192 7728
WIRE 2192 7792 2064 7792
WIRE 2432 7792 2432 7728
WIRE 3040 7792 3040 7568
WIRE 3040 7792 2432 7792
WIRE 1680 7808 1680 7568
WIRE 1680 7808 896 7808
WIRE 1712 7840 1712 7792
WIRE 1712 7840 928 7840
WIRE 2192 7856 2192 7792
WIRE 2256 7856 2192 7856
WIRE 2432 7856 2432 7792
WIRE 2432 7856 2336 7856
WIRE 1712 7872 960 7872
WIRE 608 7952 608 5136
WIRE 1616 7952 608 7952
WIRE 2224 7952 2192 7952
WIRE 2320 7952 2304 7952
WIRE 2432 7952 2384 7952
WIRE 352 7968 352 6160
WIRE 1584 7968 352 7968
WIRE 1280 8000 1184 8000
WIRE 1328 8000 1280 8000
WIRE 1424 8000 1328 8000
WIRE 1712 8016 1712 7872
WIRE 2064 8016 1712 8016
WIRE 2192 8016 2192 7952
WIRE 2192 8016 2064 8016
WIRE 2432 8016 2432 7952
WIRE 3040 8016 3040 7792
WIRE 3040 8016 2432 8016
WIRE 1152 8032 1008 8032
WIRE 1184 8032 1184 8000
WIRE 1184 8032 1152 8032
WIRE 1424 8032 1424 8000
WIRE 1456 8032 1424 8032
WIRE 1584 8032 1584 7968
WIRE 1584 8032 1456 8032
WIRE 1280 8048 1280 8000
WIRE 1328 8048 1328 8000
WIRE 1328 8048 1280 8048
WIRE 624 8064 624 5088
WIRE 1008 8064 624 8064
WIRE 1152 8064 1008 8064
WIRE 1184 8064 1184 8032
WIRE 1184 8064 1152 8064
WIRE 1424 8064 1424 8032
WIRE 1456 8064 1424 8064
WIRE 1584 8064 1456 8064
WIRE 1616 8064 1616 7952
WIRE 1616 8064 1584 8064
WIRE 2192 8080 2192 8016
WIRE 2256 8080 2192 8080
WIRE 2432 8080 2432 8016
WIRE 2432 8080 2336 8080
WIRE 960 8096 960 7872
WIRE 1008 8096 960 8096
WIRE 1152 8096 1008 8096
WIRE 1184 8096 1184 8064
WIRE 1184 8096 1152 8096
WIRE 1424 8096 1424 8064
WIRE 1456 8096 1424 8096
WIRE 1584 8096 1456 8096
WIRE 1920 8096 1584 8096
WIRE 928 8128 928 7840
WIRE 1008 8128 928 8128
WIRE 1152 8128 1008 8128
WIRE 1184 8128 1184 8096
WIRE 1184 8128 1152 8128
WIRE 1424 8128 1424 8096
WIRE 1456 8128 1424 8128
WIRE 1584 8128 1456 8128
WIRE 1888 8128 1584 8128
WIRE 896 8160 896 7808
WIRE 1008 8160 896 8160
WIRE 1152 8160 1008 8160
WIRE 1184 8160 1184 8128
WIRE 1184 8160 1152 8160
WIRE 1424 8160 1424 8128
WIRE 1456 8160 1424 8160
WIRE 1584 8160 1456 8160
WIRE 1856 8160 1600 8160
WIRE 2224 8176 2192 8176
WIRE 2320 8176 2304 8176
WIRE 2432 8176 2384 8176
WIRE 864 8192 864 7776
WIRE 1008 8192 864 8192
WIRE 1152 8192 1008 8192
WIRE 1184 8192 1184 8160
WIRE 1184 8192 1152 8192
WIRE 1424 8192 1424 8160
WIRE 1456 8192 1424 8192
WIRE 1584 8192 1456 8192
WIRE 1808 8192 1632 8192
WIRE 1152 8224 1008 8224
WIRE 1184 8224 1184 8192
WIRE 1184 8224 1152 8224
WIRE 1424 8224 1424 8192
WIRE 1456 8224 1424 8224
WIRE 1584 8224 1456 8224
WIRE 1696 8224 1584 8224
WIRE 1920 8240 1920 8096
WIRE 2064 8240 1920 8240
WIRE 2192 8240 2192 8176
WIRE 2192 8240 2064 8240
WIRE 2432 8240 2432 8176
WIRE 3040 8240 3040 8016
WIRE 3040 8240 2432 8240
WIRE 576 8256 576 6512
WIRE 1152 8256 576 8256
WIRE 1184 8256 1184 8224
WIRE 1184 8256 1152 8256
WIRE 1424 8256 1424 8224
WIRE 1456 8256 1424 8256
WIRE 1584 8256 1456 8256
WIRE 1184 8288 1184 8256
WIRE 1424 8288 1424 8256
WIRE 1424 8288 1184 8288
WIRE 2192 8304 2192 8240
WIRE 2256 8304 2192 8304
WIRE 2432 8304 2432 8240
WIRE 2432 8304 2336 8304
WIRE 576 8336 576 8256
WIRE 1584 8336 1584 8256
WIRE 1584 8336 576 8336
WIRE 2224 8400 2192 8400
WIRE 2320 8400 2304 8400
WIRE 2432 8400 2384 8400
WIRE 640 8432 640 5040
WIRE 1696 8432 1696 8224
WIRE 1696 8432 640 8432
WIRE 1888 8464 1888 8128
WIRE 2064 8464 1888 8464
WIRE 2192 8464 2192 8400
WIRE 2192 8464 2064 8464
WIRE 2432 8464 2432 8400
WIRE 3040 8464 3040 8240
WIRE 3040 8464 2432 8464
WIRE 2192 8528 2192 8464
WIRE 2256 8528 2192 8528
WIRE 2432 8528 2432 8464
WIRE 2432 8528 2336 8528
WIRE 464 8544 464 5184
WIRE 640 8544 464 8544
WIRE 2208 8624 2176 8624
WIRE 2304 8624 2288 8624
WIRE 2416 8624 2368 8624
WIRE 1856 8688 1856 8160
WIRE 2048 8688 1856 8688
WIRE 2176 8688 2176 8624
WIRE 2176 8688 2048 8688
WIRE 2416 8688 2416 8624
WIRE 3040 8688 3040 8464
WIRE 3040 8688 2416 8688
WIRE 2176 8752 2176 8688
WIRE 2240 8752 2176 8752
WIRE 2416 8752 2416 8688
WIRE 2416 8752 2320 8752
WIRE 2208 8848 2176 8848
WIRE 2304 8848 2288 8848
WIRE 2416 8848 2368 8848
WIRE 1808 8912 1808 8192
WIRE 2048 8912 1808 8912
WIRE 2176 8912 2176 8848
WIRE 2176 8912 2048 8912
WIRE 2416 8912 2416 8848
WIRE 3040 8912 3040 8688
WIRE 3040 8912 2416 8912
WIRE 2176 8976 2176 8912
WIRE 2240 8976 2176 8976
WIRE 2416 8976 2416 8912
WIRE 2416 8976 2320 8976
WIRE 2224 9088 2192 9088
WIRE 2320 9088 2304 9088
WIRE 2432 9088 2384 9088
WIRE 2064 9152 1664 9152
WIRE 2192 9152 2192 9088
WIRE 2192 9152 2064 9152
WIRE 2432 9152 2432 9088
WIRE 3040 9152 3040 8912
WIRE 3040 9152 2432 9152
WIRE 2192 9216 2192 9152
WIRE 2256 9216 2192 9216
WIRE 2432 9216 2432 9152
WIRE 2432 9216 2336 9216
WIRE 2224 9312 2192 9312
WIRE 2320 9312 2304 9312
WIRE 2432 9312 2384 9312
WIRE 2064 9376 1680 9376
WIRE 2192 9376 2192 9312
WIRE 2192 9376 2064 9376
WIRE 2432 9376 2432 9312
WIRE 3040 9376 3040 9152
WIRE 3040 9376 2432 9376
WIRE 2192 9440 2192 9376
WIRE 2256 9440 2192 9440
WIRE 2432 9440 2432 9376
WIRE 2432 9440 2336 9440
WIRE 2208 9536 2176 9536
WIRE 2304 9536 2288 9536
WIRE 2416 9536 2368 9536
WIRE 2048 9600 1696 9600
WIRE 2176 9600 2176 9536
WIRE 2176 9600 2048 9600
WIRE 2416 9600 2416 9536
WIRE 3040 9600 3040 9376
WIRE 3040 9600 2416 9600
WIRE 2176 9664 2176 9600
WIRE 2240 9664 2176 9664
WIRE 2416 9664 2416 9600
WIRE 2416 9664 2320 9664
WIRE 1664 9680 1664 9152
WIRE 1664 9680 944 9680
WIRE 1680 9696 1680 9376
WIRE 1680 9696 960 9696
WIRE 1696 9712 1696 9600
WIRE 1696 9712 976 9712
WIRE 1696 9728 992 9728
WIRE 432 9744 432 5376
WIRE 1632 9744 432 9744
WIRE 352 9760 352 7968
WIRE 1616 9760 352 9760
WIRE 2208 9760 2176 9760
WIRE 2304 9760 2288 9760
WIRE 2416 9760 2368 9760
WIRE 1312 9792 1216 9792
WIRE 1360 9792 1312 9792
WIRE 1456 9792 1360 9792
WIRE 1184 9824 1040 9824
WIRE 1216 9824 1216 9792
WIRE 1216 9824 1184 9824
WIRE 1456 9824 1456 9792
WIRE 1488 9824 1456 9824
WIRE 1616 9824 1616 9760
WIRE 1616 9824 1488 9824
WIRE 1696 9824 1696 9728
WIRE 2048 9824 1696 9824
WIRE 2176 9824 2176 9760
WIRE 2176 9824 2048 9824
WIRE 2416 9824 2416 9760
WIRE 3040 9824 3040 9600
WIRE 3040 9824 2416 9824
WIRE 1312 9840 1312 9792
WIRE 1360 9840 1360 9792
WIRE 1360 9840 1312 9840
WIRE 448 9856 448 5232
WIRE 1040 9856 448 9856
WIRE 1184 9856 1040 9856
WIRE 1216 9856 1216 9824
WIRE 1216 9856 1184 9856
WIRE 1456 9856 1456 9824
WIRE 1488 9856 1456 9856
WIRE 1616 9856 1488 9856
WIRE 1632 9856 1632 9744
WIRE 1632 9856 1616 9856
WIRE 992 9888 992 9728
WIRE 1040 9888 992 9888
WIRE 1184 9888 1040 9888
WIRE 1216 9888 1216 9856
WIRE 1216 9888 1184 9888
WIRE 1456 9888 1456 9856
WIRE 1488 9888 1456 9888
WIRE 1616 9888 1488 9888
WIRE 1696 9888 1616 9888
WIRE 2176 9888 2176 9824
WIRE 2240 9888 2176 9888
WIRE 2416 9888 2416 9824
WIRE 2416 9888 2320 9888
WIRE 976 9920 976 9712
WIRE 1040 9920 976 9920
WIRE 1184 9920 1040 9920
WIRE 1216 9920 1216 9888
WIRE 1216 9920 1184 9920
WIRE 1456 9920 1456 9888
WIRE 1488 9920 1456 9920
WIRE 1616 9920 1488 9920
WIRE 1680 9920 1616 9920
WIRE 960 9952 960 9696
WIRE 1040 9952 960 9952
WIRE 1184 9952 1040 9952
WIRE 1216 9952 1216 9920
WIRE 1216 9952 1184 9952
WIRE 1456 9952 1456 9920
WIRE 1488 9952 1456 9952
WIRE 1616 9952 1488 9952
WIRE 1664 9952 1616 9952
WIRE 944 9984 944 9680
WIRE 1040 9984 944 9984
WIRE 1184 9984 1040 9984
WIRE 1216 9984 1216 9952
WIRE 1216 9984 1184 9984
WIRE 1456 9984 1456 9952
WIRE 1488 9984 1456 9984
WIRE 1616 9984 1488 9984
WIRE 1648 9984 1616 9984
WIRE 2208 9984 2176 9984
WIRE 2304 9984 2288 9984
WIRE 2416 9984 2368 9984
WIRE 1184 10016 1040 10016
WIRE 1216 10016 1216 9984
WIRE 1216 10016 1184 10016
WIRE 1456 10016 1456 9984
WIRE 1488 10016 1456 10016
WIRE 1616 10016 1488 10016
WIRE 1632 10016 1616 10016
WIRE 576 10048 576 8336
WIRE 1184 10048 576 10048
WIRE 1216 10048 1216 10016
WIRE 1216 10048 1184 10048
WIRE 1456 10048 1456 10016
WIRE 1488 10048 1456 10048
WIRE 1616 10048 1488 10048
WIRE 1696 10048 1696 9888
WIRE 2048 10048 1696 10048
WIRE 2176 10048 2176 9984
WIRE 2176 10048 2048 10048
WIRE 2416 10048 2416 9984
WIRE 3040 10048 3040 9824
WIRE 3040 10048 2416 10048
WIRE 1216 10080 1216 10048
WIRE 1456 10080 1456 10048
WIRE 1456 10080 1216 10080
WIRE 2176 10112 2176 10048
WIRE 2240 10112 2176 10112
WIRE 2416 10112 2416 10048
WIRE 2416 10112 2320 10112
WIRE 576 10128 576 10048
WIRE 1616 10128 1616 10048
WIRE 1616 10128 576 10128
WIRE 640 10144 640 8544
WIRE 1632 10144 1632 10016
WIRE 1632 10144 640 10144
WIRE 2208 10208 2176 10208
WIRE 2304 10208 2288 10208
WIRE 2416 10208 2368 10208
WIRE 1680 10272 1680 9920
WIRE 2048 10272 1680 10272
WIRE 2176 10272 2176 10208
WIRE 2176 10272 2048 10272
WIRE 2416 10272 2416 10208
WIRE 3040 10272 3040 10048
WIRE 3040 10272 2416 10272
WIRE 2176 10336 2176 10272
WIRE 2240 10336 2176 10336
WIRE 2416 10336 2416 10272
WIRE 2416 10336 2320 10336
WIRE 2192 10432 2160 10432
WIRE 2288 10432 2272 10432
WIRE 2400 10432 2352 10432
WIRE 1664 10496 1664 9952
WIRE 2032 10496 1664 10496
WIRE 2160 10496 2160 10432
WIRE 2160 10496 2032 10496
WIRE 2400 10496 2400 10432
WIRE 3040 10496 3040 10272
WIRE 3040 10496 2400 10496
WIRE 2160 10560 2160 10496
WIRE 2224 10560 2160 10560
WIRE 2400 10560 2400 10496
WIRE 2400 10560 2304 10560
WIRE 2192 10656 2160 10656
WIRE 2288 10656 2272 10656
WIRE 2400 10656 2352 10656
WIRE 1648 10720 1648 9984
WIRE 2032 10720 1648 10720
WIRE 2160 10720 2160 10656
WIRE 2160 10720 2032 10720
WIRE 2400 10720 2400 10656
WIRE 3040 10720 3040 10496
WIRE 3040 10720 2400 10720
WIRE 2160 10784 2160 10720
WIRE 2224 10784 2160 10784
WIRE 2400 10784 2400 10720
WIRE 2400 10784 2304 10784
WIRE 576 10944 576 10128
WIRE 3040 10944 3040 10720
WIRE 3040 10944 576 10944
FLAG 192 384 0
FLAG -400 -96 Vcc
FLAG -400 48 Pin
FLAG -400 240 Vcc
FLAG -400 384 Pin
FLAG 816 176 Vcc
FLAG 816 32 Pin
FLAG 800 -160 Vcc
FLAG 800 -304 Pin
FLAG 1280 -192 0